Version 4
SHEET 1 2468 680
WIRE -352 -336 -432 -336
WIRE -336 -336 -352 -336
WIRE 80 -336 -336 -336
WIRE 96 -336 80 -336
WIRE 272 -336 96 -336
WIRE 384 -336 272 -336
WIRE 400 -336 384 -336
WIRE 720 -336 400 -336
WIRE 736 -336 720 -336
WIRE 1024 -336 736 -336
WIRE 1040 -336 1024 -336
WIRE 1312 -336 1040 -336
WIRE 1328 -336 1312 -336
WIRE 400 -288 400 -336
WIRE 720 -288 720 -336
WIRE 1024 -288 1024 -336
WIRE 1312 -288 1312 -336
WIRE -336 -272 -336 -336
WIRE 384 -240 384 -336
WIRE 400 -240 384 -240
WIRE 560 -240 448 -240
WIRE 640 -240 560 -240
WIRE 672 -240 640 -240
WIRE 736 -240 736 -336
WIRE 736 -240 720 -240
WIRE 976 -240 896 -240
WIRE 1040 -240 1040 -336
WIRE 1040 -240 1024 -240
WIRE 1264 -240 1232 -240
WIRE 1328 -240 1328 -336
WIRE 1328 -240 1312 -240
WIRE -352 -224 -352 -336
WIRE -336 -224 -352 -224
WIRE 224 -224 -288 -224
WIRE 80 -144 80 -336
WIRE 224 -144 224 -224
WIRE 640 -144 640 -240
WIRE 640 -144 224 -144
WIRE 896 -144 896 -240
WIRE 896 -144 640 -144
WIRE 1232 -144 1232 -240
WIRE 1232 -144 896 -144
WIRE 1312 -144 1312 -192
WIRE 1424 -144 1312 -144
WIRE 1312 -112 1312 -144
WIRE 32 -96 -32 -96
WIRE 96 -96 96 -336
WIRE 96 -96 80 -96
WIRE 560 -64 560 -240
WIRE 1312 16 1312 -32
WIRE 272 32 272 -336
WIRE 512 32 272 32
WIRE 640 32 608 32
WIRE 1024 48 1024 -192
WIRE 1168 48 1024 48
WIRE -336 80 -336 -176
WIRE -192 80 -336 80
WIRE -32 80 -32 -96
WIRE -32 80 -192 80
WIRE -192 128 -192 80
WIRE 608 160 608 144
WIRE 912 160 608 160
WIRE 1168 160 1168 48
WIRE 1168 160 992 160
WIRE 80 176 80 -48
WIRE 608 176 608 160
WIRE 608 176 80 176
WIRE 512 208 512 144
WIRE 560 208 512 208
WIRE 400 224 400 -192
WIRE 400 224 144 224
WIRE 512 224 512 208
WIRE 512 224 400 224
WIRE 608 224 608 176
WIRE 720 224 720 -192
WIRE 720 224 608 224
WIRE 960 224 720 224
WIRE -192 256 -192 192
WIRE 560 288 560 208
WIRE 800 288 560 288
WIRE 1168 288 1168 160
WIRE 1168 288 880 288
WIRE 400 304 400 224
WIRE 144 368 144 224
WIRE 960 368 960 224
WIRE 400 464 400 384
WIRE 720 464 720 224
WIRE 1168 464 1168 288
WIRE 336 512 304 512
WIRE 816 512 784 512
WIRE 1104 512 1072 512
WIRE 304 576 304 512
WIRE 400 576 400 560
WIRE 400 576 304 576
WIRE 720 576 720 560
WIRE 816 576 816 512
WIRE 816 576 720 576
WIRE 1072 576 1072 512
WIRE 1168 576 1168 560
WIRE 1168 576 1072 576
WIRE 144 608 144 448
WIRE 400 608 400 576
WIRE 720 608 720 576
WIRE 960 608 960 448
WIRE 1168 608 1168 576
FLAG 400 608 0
FLAG 720 608 0
FLAG 144 608 0
FLAG 960 608 0
FLAG 1312 16 0
FLAG 1424 -144 VBG
IOPIN 1424 -144 Out
FLAG 640 32 0
FLAG -192 256 0
FLAG -432 -336 VDD
IOPIN -432 -336 In
FLAG 0 -512 0
FLAG 0 -592 VDD
IOPIN 0 -592 In
FLAG 1168 608 0
SYMBOL Schema_AO 544 64 R270
WINDOW 0 -6 -67 Bottom 2
SYMATTR InstName X1
SYMBOL pmosb 448 -288 M0
SYMATTR InstName M1
SYMATTR Value2 l=1u w=3.5u
SYMBOL pmosb 672 -288 R0
SYMATTR InstName M2
SYMATTR Value2 l=1u w=3.5u
SYMBOL pmosb 1264 -288 R0
SYMATTR InstName M3
SYMATTR Value2 l=1u w=3.5u
SYMBOL pnp 336 560 M180
SYMATTR InstName Q1
SYMATTR SpiceLine AREA=10
SYMBOL pnp 784 560 R180
SYMATTR InstName Q2
SYMATTR SpiceLine AREA=1
SYMBOL res 384 288 R0
SYMATTR InstName R1
SYMATTR Value 33.7k
SYMBOL res 128 352 R0
SYMATTR InstName R2
SYMATTR Value 300k
SYMBOL res 944 352 R0
SYMATTR InstName R3
SYMATTR Value 300k
SYMBOL res 1296 -128 R0
SYMATTR InstName R4
SYMATTR Value 300k
SYMBOL pmosb -288 -272 M0
SYMATTR InstName M4
SYMATTR Value2 l=5u w=1u
SYMBOL pmosb 32 -144 R0
SYMATTR InstName M5
SYMATTR Value2 l=10u w=1u
SYMBOL cap -208 128 R0
SYMATTR InstName C1
SYMATTR Value 10p
SYMBOL voltage 0 -608 R0
WINDOW 123 24 44 Left 2
WINDOW 39 0 0 Left 0
SYMATTR Value2 AC 0
SYMATTR InstName V1
SYMATTR Value 1.8
SYMBOL pnp 1104 560 M180
SYMATTR InstName Q3
SYMATTR SpiceLine AREA=0.5
SYMBOL res 896 176 R270
WINDOW 0 32 56 VTop 2
WINDOW 3 0 56 VBottom 2
SYMATTR InstName R5
SYMATTR Value 4Meg
SYMBOL res 784 304 R270
WINDOW 0 32 56 VTop 2
WINDOW 3 0 56 VBottom 2
SYMATTR InstName R6
SYMATTR Value 4Meg
SYMBOL pmosb 976 -288 R0
SYMATTR InstName M6
SYMATTR Value2 l=1u w=3.5u
TEXT 424 560 Left 2 ;;n*A
TEXT 680 560 Left 2 ;;A
TEXT 280 -712 Left 2 !.lib tsmc180nmcmos.lib
TEXT 280 -664 Left 2 ;.op
TEXT 280 -632 Left 2 ;.tran 0 100u
TEXT 280 -600 Left 2 ;.dc temp -40 150 .1
TEXT 280 -568 Left 2 ;.step param V1 list 1.6 1.8 2
TEXT 280 -536 Left 2 ;.ac dec 10 1 1G
TEXT 280 -504 Left 2 ;.dc V1 1.6 2 .1
TEXT 1664 -336 Left 2 ;;aria=0.5, R5=R6=4Meg, R4=300k, delta VBG=833uV=0.8mV aprox.\n;aria=1, R5=R6=10Meg, R4=300k, delta VBG=1mV aprox.
