Version 4
SHEET 1 2472 680
WIRE -224 80 -272 80
WIRE 16 128 -16 128
WIRE 48 128 16 128
WIRE -224 176 -272 176
WIRE -272 304 -272 176
WIRE -160 304 -272 304
WIRE 16 304 16 128
WIRE 16 304 -80 304
FLAG 16 -160 VDD
IOPIN 16 -160 In
FLAG 176 -160 VSS
IOPIN 176 -160 In
FLAG 16 -80 0
FLAG 176 -80 0
FLAG 48 128 Vmasura
IOPIN 48 128 Out
FLAG -112 80 VDD
IOPIN -112 80 In
FLAG -112 176 VSS
IOPIN -112 176 In
FLAG -272 176 Vtest
IOPIN -272 176 In
FLAG 1584 -160 0
FLAG 1584 -240 Vsr
IOPIN 1584 -240 In
FLAG 2144 288 0
FLAG 2144 208 Vin
IOPIN 2144 208 In
FLAG -272 80 Vsr
IOPIN -272 80 In
FLAG -528 -80 0
FLAG -528 -160 Vsr
IOPIN -528 -160 In
SYMBOL voltage 16 -176 R0
WINDOW 123 0 0 Left 0
WINDOW 39 0 0 Left 0
SYMATTR InstName V1
SYMATTR Value 1.8V
SYMBOL voltage 176 -176 R0
WINDOW 123 0 0 Left 0
WINDOW 39 0 0 Left 0
SYMATTR InstName V2
SYMATTR Value 0V
SYMBOL voltage -64 304 R90
WINDOW 0 -32 56 VBottom 2
WINDOW 3 88 56 VTop 2
WINDOW 123 60 56 VTop 2
WINDOW 39 0 0 Left 0
SYMATTR InstName V4
SYMATTR Value 0
SYMATTR Value2 AC 1
SYMBOL Schema_AO -144 112 R0
SYMATTR InstName X1
SYMBOL voltage 1584 -256 R0
WINDOW 123 24 44 Left 2
WINDOW 39 0 0 Left 0
SYMATTR Value2 AC 1
SYMATTR InstName V5
SYMATTR Value PULSE(1 1.5 200n 1n 1n 500n 1u 10)
SYMBOL voltage 2144 192 R0
WINDOW 123 0 0 Left 0
WINDOW 39 0 0 Left 0
SYMATTR InstName V3
SYMATTR Value 0.9V
SYMBOL voltage -528 -176 R0
WINDOW 123 24 44 Left 2
WINDOW 39 0 0 Left 0
SYMATTR Value2 AC 1
SYMATTR InstName V6
SYMATTR Value PULSE(1 1.5 200n 1n 1n 500n 1u 10)
TEXT 672 96 Left 2 !;ac dec 10 1 1G
TEXT 672 144 Left 2 ;;a0=84dB\n;PM=65grade\n;GM=15dB\n;GBW=22MHz
TEXT 1000 96 Left 2 !;step param V1 list 1.8 2 2.2
TEXT 1000 128 Left 2 !;step temp list -40 25 150
TEXT 1000 256 Left 2 ;;-40degC: VDD=1.8V, 2V, 2.2V -> PM=52grade, GM=13dB\n;25degC: VDD=1.8V, 2V, 2.2V -> PM=65grade, GM=15dB\n;150degC: VDD=1.8V, 2V, 2.2V -> PM=72grade, GM=20dB
TEXT 1000 216 Left 2 ;;Le-am luat separat in analiza de la View -> Select Steps
TEXT 1000 360 Left 2 ;;Observam ca cu cat temperatura creste cu atat PM si GM cresc,\n;insa sistemul ramane stabil in acest domeniu de temperatura si\n;cu aceste variatii ale lui VDD
TEXT 536 -272 Left 2 ;Analizam configuratia de repetor pentru ca aceasta este\n;cea mai instabila configuratie si daca reusim sa facem\n;AO-ul stabil in aceasta configuratie atunci acesta va fi\n;stabil in orice alta configuratie
TEXT 528 -144 Left 2 ;;La intrare am pus o valoare DC de 0.9V (VDD/2) ca sa polarizam\n;tranzistoarele de intrare si sa ne asiguram ca ele raman in saturatie,\n;iar sursa de test am pus-o ca sa putem afisa functia de transfer\n;Vmasura/Vtest pentru caracteristicile in frecventa (amplificare si faza)
TEXT 1304 -328 Left 2 ;;Sursa de tensiune pentru evaluarea Slew Rate-ului
TEXT 1528 -96 Left 2 !.tran 0 10u 0 1m
TEXT 1528 -48 Left 2 ;;SR=12V/us  (cu spike-uri de 120mV la comutare pentru frecventa de 1MHz)\n;Cu GBW=22MHz, putem folosi AO la o frecventa de maxim GBW/10=2.2MHz,\n;frecventa la care Slew Rate-ul e foarte prost, la o frecventa de 1MHz e ok SR-ul
TEXT 1872 128 Left 2 ;;Sursa de tensiune pentru testare AO (in loc de Vsr)
TEXT 1000 168 Left 2 ;;cu step param punem analiza ac la baza
