Version 4
SHEET 1 3220 1192
WIRE -928 -240 -1008 -240
WIRE -912 -240 -928 -240
WIRE -496 -240 -912 -240
WIRE -480 -240 -496 -240
WIRE -304 -240 -480 -240
WIRE -192 -240 -304 -240
WIRE -176 -240 -192 -240
WIRE 144 -240 -176 -240
WIRE 160 -240 144 -240
WIRE 320 -240 160 -240
WIRE 336 -240 320 -240
WIRE -176 -192 -176 -240
WIRE 144 -192 144 -240
WIRE 320 -192 320 -240
WIRE -912 -176 -912 -240
WIRE -192 -144 -192 -240
WIRE -176 -144 -192 -144
WIRE -16 -144 -128 -144
WIRE 64 -144 -16 -144
WIRE 96 -144 64 -144
WIRE 160 -144 160 -240
WIRE 160 -144 144 -144
WIRE 272 -144 240 -144
WIRE 336 -144 336 -240
WIRE 336 -144 320 -144
WIRE -928 -128 -928 -240
WIRE -912 -128 -928 -128
WIRE -352 -128 -864 -128
WIRE -496 -48 -496 -240
WIRE -352 -48 -352 -128
WIRE 64 -48 64 -144
WIRE 64 -48 -352 -48
WIRE 240 -48 240 -144
WIRE 240 -48 64 -48
WIRE 320 -48 320 -96
WIRE 432 -48 320 -48
WIRE 320 -16 320 -48
WIRE -544 0 -608 0
WIRE -480 0 -480 -240
WIRE -480 0 -496 0
WIRE -16 32 -16 -144
WIRE 320 112 320 64
WIRE -304 128 -304 -240
WIRE -64 128 -304 128
WIRE 64 128 32 128
WIRE -912 176 -912 -80
WIRE -768 176 -912 176
WIRE -608 176 -608 0
WIRE -608 176 -768 176
WIRE -768 224 -768 176
WIRE -496 272 -496 48
WIRE 32 272 32 240
WIRE 32 272 -496 272
WIRE -176 320 -176 -96
WIRE -176 320 -432 320
WIRE -64 320 -64 240
WIRE -64 320 -176 320
WIRE 32 320 32 272
WIRE 144 320 144 -96
WIRE 144 320 32 320
WIRE 384 320 144 320
WIRE -768 352 -768 288
WIRE -176 400 -176 320
WIRE -432 464 -432 320
WIRE 384 464 384 320
WIRE -176 560 -176 480
WIRE 144 560 144 320
WIRE -240 608 -272 608
WIRE 240 608 208 608
WIRE -272 672 -272 608
WIRE -176 672 -176 656
WIRE -176 672 -272 672
WIRE 144 672 144 656
WIRE 240 672 240 608
WIRE 240 672 144 672
WIRE -432 704 -432 544
WIRE -176 704 -176 672
WIRE 144 704 144 672
WIRE 384 704 384 544
FLAG -176 704 0
FLAG 144 704 0
FLAG -432 704 0
FLAG 384 704 0
FLAG 320 112 0
FLAG 432 -48 VBG
IOPIN 432 -48 Out
FLAG 64 128 0
FLAG -640 -400 0
FLAG -640 -480 VDD
IOPIN -640 -480 In
FLAG -768 352 0
FLAG 1920 -80 0
FLAG 1920 -160 Vsupply_PSRR
IOPIN 1920 -160 In
FLAG 1088 -32 0
FLAG 1088 -112 Vsupply_PULSE
IOPIN 1088 -112 In
FLAG -1008 -240 VDD
IOPIN -1008 -240 In
SYMBOL Schema_AO -32 160 R270
WINDOW 0 -6 -67 Bottom 2
SYMATTR InstName X1
SYMBOL pmosb -128 -192 M0
SYMATTR InstName M1
SYMATTR Value2 l=1u w=3.5u
SYMBOL pmosb 96 -192 R0
SYMATTR InstName M2
SYMATTR Value2 l=1u w=3.5u
SYMBOL pmosb 272 -192 R0
SYMATTR InstName M3
SYMATTR Value2 l=1u w=3.5u
SYMBOL pnp -240 656 M180
SYMATTR InstName Q1
SYMATTR SpiceLine AREA=10
SYMBOL pnp 208 656 R180
SYMATTR InstName Q2
SYMATTR SpiceLine AREA=1
SYMBOL res -192 384 R0
SYMATTR InstName R3
SYMATTR Value 33.7k
SYMBOL res -448 448 R0
SYMATTR InstName R2
SYMATTR Value 300k
SYMBOL res 368 448 R0
SYMATTR InstName R1
SYMATTR Value 300k
SYMBOL res 304 -32 R0
SYMATTR InstName R4
SYMATTR Value 300k
SYMBOL voltage -640 -496 R0
WINDOW 123 24 44 Left 2
WINDOW 39 0 0 Left 0
SYMATTR Value2 AC 0
SYMATTR InstName V1
SYMATTR Value 1.8
SYMBOL pmosb -864 -176 M0
SYMATTR InstName M4
SYMATTR Value2 l=5u w=1u
SYMBOL pmosb -544 -48 R0
SYMATTR InstName M5
SYMATTR Value2 l=10u w=1u
SYMBOL voltage 1920 -176 R0
WINDOW 123 24 44 Left 2
WINDOW 39 0 0 Left 0
SYMATTR Value2 AC 1
SYMATTR InstName V3
SYMATTR Value SINE(1.8 1 50)
SYMBOL cap -784 224 R0
SYMATTR InstName C1
SYMATTR Value 10p
SYMBOL voltage 1088 -128 R0
WINDOW 123 0 0 Left 0
WINDOW 39 0 0 Left 0
SYMATTR InstName V4
SYMATTR Value PULSE(0 1.8 20u 1n 1n 60u)
TEXT -152 656 Left 2 ;;n*A
TEXT 104 656 Left 2 ;;A
TEXT -360 -600 Left 2 !.lib tsmc180nmcmos.lib
TEXT -360 -552 Left 2 ;.op
TEXT -360 -520 Left 2 ;.tran 0 100u
TEXT -360 -488 Left 2 ;.dc temp -40 150 .1
TEXT -360 -456 Left 2 ;.step param V1 list 1.6 1.8 2
TEXT -360 -424 Left 2 ;.ac dec 10 1 1G
TEXT -360 -392 Left 2 ;.dc V1 1.6 2 .1
TEXT 792 -400 Left 2 ;;masurarea timpului de pornire a bandgap-ului -> .tran 0 100u\n(plot Vsupply_PULSE)\n(plot VGB -> 1.2V cand Vsupply_PULSE are amplitudine maxima)
TEXT 1696 -408 Left 2 ;;pentru PSRR\n(plot VBG cu analiza .ac dec 10 1 1G ->-54dB PSRR)
TEXT 800 144 Left 2 ;;variatie cu temperatura VBG\n;pentru caracteristica Bandgap (curvatura)\n(plot VBG cu analiza .dc temp -40 150 .1 si .step param V1 list 1.6 1.8 2)
TEXT 800 240 Left 2 ;;curent consumat in functie de temperatura\nquiscent current: 15uA prin OTA, 12uA prin Bandgap total 27uA\n(analiza .dc temp -40 150 .1)
TEXT 1800 72 Left 2 ;;pentru stabilitate\nplasam o sursa de tensiune AC=1 la iesirea AO-ului, pin de Vmasura \npe sursa si un pin de Vtest in celalalt capat al sursei\nplotam Vmasura/Vtest\na0=85dB\nPM=60deg\nGM=12dB\nGBW=19MHz
TEXT 800 88 Left 2 ;;Variatii PVT
TEXT 800 384 Left 2 ;;variatie cu tensiunea de alimentare VDD\nvariem VDD intre 1.6-2V\n(plot VBG cu analiza .dc V1 1.6 2 .1)
TEXT 800 520 Left 2 ;;variatie cu procesul\nanaliza Monte Carlo\nrezistentele au valoarea {mc(value, tol)}\nfolosim comenzile de mai jos cu analiza .op la baza
TEXT 792 632 Left 2 ;.step param run 1 300 1\n.param tol 0.01
