Version 4
SHEET 1 1696 680
WIRE 368 -400 112 -400
WIRE 384 -400 368 -400
WIRE 480 -400 480 -432
WIRE 480 -400 384 -400
WIRE 576 -400 480 -400
WIRE 592 -400 576 -400
WIRE 880 -400 592 -400
WIRE 896 -400 880 -400
WIRE 384 -352 384 -400
WIRE 576 -352 576 -400
WIRE 880 -352 880 -400
WIRE 368 -304 368 -400
WIRE 384 -304 368 -304
WIRE 464 -304 432 -304
WIRE 528 -304 464 -304
WIRE 592 -304 592 -400
WIRE 592 -304 576 -304
WIRE 832 -304 672 -304
WIRE 896 -304 896 -400
WIRE 896 -304 880 -304
WIRE 384 -224 384 -256
WIRE 464 -224 464 -304
WIRE 464 -224 384 -224
WIRE 112 -192 112 -400
WIRE 576 -160 576 -256
WIRE 672 -160 672 -304
WIRE 672 -160 576 -160
WIRE 704 -160 672 -160
WIRE 800 -160 784 -160
WIRE 880 -160 880 -256
WIRE 880 -160 864 -160
WIRE 880 -96 880 -160
WIRE 976 -96 880 -96
WIRE 1040 -96 976 -96
WIRE 384 -80 384 -224
WIRE 576 -80 576 -160
WIRE 976 -48 976 -96
WIRE 336 -32 304 -32
WIRE 400 -32 384 -32
WIRE 576 -32 560 -32
WIRE 656 -32 624 -32
WIRE 976 32 976 16
WIRE 384 48 384 16
WIRE 400 48 400 -32
WIRE 400 48 384 48
WIRE 480 48 400 48
WIRE 560 48 560 -32
WIRE 560 48 480 48
WIRE 576 48 576 16
WIRE 576 48 560 48
WIRE 112 64 112 -112
WIRE 192 64 112 64
WIRE 560 80 416 80
WIRE 112 96 112 64
WIRE 480 96 480 48
WIRE 880 96 880 -96
WIRE 112 144 96 144
WIRE 192 144 192 64
WIRE 192 144 160 144
WIRE 416 144 416 80
WIRE 416 144 192 144
WIRE 432 144 416 144
WIRE 496 144 480 144
WIRE 560 144 560 80
WIRE 832 144 560 144
WIRE 896 144 880 144
WIRE 96 224 96 144
WIRE 112 224 112 192
WIRE 112 224 96 224
WIRE 480 224 480 192
WIRE 480 224 112 224
WIRE 496 224 496 144
WIRE 496 224 480 224
WIRE 880 224 880 192
WIRE 880 224 496 224
WIRE 896 224 896 144
WIRE 896 224 880 224
WIRE 480 256 480 224
FLAG 976 32 0
FLAG 480 -432 VDD
IOPIN 480 -432 In
FLAG 304 -32 in-
IOPIN 304 -32 In
FLAG 656 -32 in+
IOPIN 656 -32 In
FLAG 1040 -96 Vout
IOPIN 1040 -96 Out
FLAG 480 256 VSS
IOPIN 480 256 In
SYMBOL nmosb 160 96 M0
SYMATTR InstName M5
SYMATTR Value2 l=1u w=0.26u
SYMBOL pmosb 432 -352 M0
SYMATTR InstName M3
SYMATTR Value2 l=1u w=2.19u
SYMBOL current 112 -192 R0
WINDOW 123 0 0 Left 0
WINDOW 39 0 0 Left 0
SYMATTR InstName Iref
SYMATTR Value 1µA
SYMBOL nmosb 832 96 R0
SYMATTR InstName M7
SYMATTR Value2 l=1u w=2.3u
SYMBOL nmosb 336 -80 R0
SYMATTR InstName M1
SYMATTR Value2 l=1u w=5.76u
SYMBOL nmosb 624 -80 M0
SYMATTR InstName M2
SYMATTR Value2 l=1u w=5.76u
SYMBOL nmosb 432 96 R0
SYMATTR InstName M6
SYMATTR Value2 l=1u w=1.3u
SYMBOL pmosb 528 -352 R0
SYMATTR InstName M4
SYMATTR Value2 l=1u w=2.19u
SYMBOL pmosb 832 -352 R0
SYMATTR InstName M8
SYMATTR Value2 l=1u w=7.89u
SYMBOL cap 960 -48 R0
SYMATTR InstName CL
SYMATTR Value 1pF
SYMBOL cap 800 -144 R270
WINDOW 0 32 32 VTop 2
WINDOW 3 0 32 VBottom 2
SYMATTR InstName CM
SYMATTR Value 500fF
SYMBOL res 688 -144 R270
WINDOW 0 32 56 VTop 2
WINDOW 3 0 56 VBottom 2
SYMATTR InstName Rz
SYMATTR Value 50k
TEXT 1128 -400 Left 2 !.lib tsmc180nmcmos.lib
TEXT 1128 -376 Left 2 !.op
TEXT 272 120 Left 2 ;1:5
TEXT -1056 -200 Left 2 ;;Id5=1uA\n;Id6=5uA (raport de oglindire 1:5 intre M5 si M6)\n;Id1,2,3,4=2.5uA (vrem v+=v- => curent impartit egal pe ramuri)\n;Id7=9uA (raport de oglindire 1:9 intre M5 si M7)\n;Id8=Id7=9uA (ca sa avem un echilibru la nodul Vout)\n \n=>curent total consumat: 1uA+5uA+9uA=15uA
TEXT -1048 -312 Left 2 ;;M1, M2 -> Vdsat=50mV (pentru castig mare am ales Vdsat foarte mic)\n(A=Gm*Rout, Gm1,2=gm1,2=2Id1,2/Vdsat1,2, gm>> => Vdsat<< (50mV)\n;M3, M4, M5, M6, M7, M8 -> Vdsat=150mV (nici prea mic, nici prea mare)
TEXT 680 120 Left 2 ;1:9
TEXT -1056 -408 Left 2 ;;Tranzistoarele au fost dimensionate folosind tabelul de referinta\n;pentru MOS-uri si datele de mai jos pentru Vdsat si Id la fiecare
TEXT -1056 40 Left 2 ;;Am ales v+ in dreapta deoarece de la acel nod diferential pana\n;la nodul Vout avem numar par de VGD-uri (tensiuni GD)\n;;Am ales v- in stanga deoarece de la acel nod diferential pana\n;la nodul Vout avem numar impar de VGD-uri (tensiuni GD)
TEXT -1056 192 Left 2 ;;CM=0.2*CL
TEXT -1056 224 Left 2 ;;Rz~1/gm_out (gm_out~100uS) (gm_out e gm al tranzistoarelor de iesire (M7 si M8)
TEXT 96 272 Left 2 ;;I=1uA
TEXT 440 368 Left 2 ;;I=5uA
TEXT 840 272 Left 2 ;;I=9uA
